Version 4
SHEET 1 1468 680
WIRE -224 -240 -224 -272
WIRE -224 -112 -224 -160
WIRE -112 -96 -176 -96
WIRE -16 -96 -32 -96
WIRE 16 -96 -16 -96
WIRE 96 -96 80 -96
WIRE 240 -96 96 -96
WIRE 336 -80 304 -80
WIRE 384 -80 336 -80
WIRE 480 -80 448 -80
WIRE 640 -80 480 -80
WIRE 240 -64 192 -64
WIRE 736 -64 704 -64
WIRE 976 -64 736 -64
WIRE -16 -48 -16 -96
WIRE 96 -48 96 -96
WIRE 640 -48 592 -48
WIRE 1136 -48 1040 -48
WIRE 944 -32 912 -32
WIRE 976 -32 944 -32
WIRE 272 -16 272 -48
WIRE 384 -16 272 -16
WIRE 480 -16 480 -80
WIRE 832 -16 800 -16
WIRE 912 -16 912 -32
WIRE 672 0 672 -32
WIRE 800 0 800 -16
WIRE 800 0 672 0
WIRE 944 32 944 -32
WIRE 192 48 192 -64
WIRE 224 48 192 48
WIRE 336 48 336 -80
WIRE 336 48 304 48
WIRE 592 64 592 -48
WIRE 624 64 592 64
WIRE 736 64 736 -64
WIRE 736 64 704 64
WIRE -16 80 -16 16
WIRE 96 80 96 32
WIRE 192 80 192 48
WIRE 592 96 592 64
WIRE 480 112 480 64
WIRE 944 128 944 112
WIRE 192 192 192 160
WIRE 592 208 592 176
WIRE -224 240 -224 -16
WIRE 384 240 384 -16
WIRE 384 240 -224 240
WIRE 800 240 800 0
WIRE 800 240 384 240
WIRE 1008 240 1008 -16
WIRE 1008 240 800 240
WIRE 800 272 800 240
WIRE 800 384 800 352
FLAG 192 192 0
FLAG 592 208 0
FLAG 480 112 0
FLAG -16 80 0
FLAG 96 80 0
FLAG 1008 -80 0
FLAG 944 128 0
FLAG 1136 -48 OUT
IOPIN 1136 -48 Out
FLAG 272 -112 0
FLAG 672 -96 0
FLAG 800 384 0
FLAG -224 -272 0
SYMBOL OpAmps\\OP07 272 -16 M180
SYMATTR InstName U1
SYMBOL res 320 32 R90
WINDOW 0 0 56 VBottom 2
WINDOW 3 32 56 VTop 2
SYMATTR InstName R1
SYMATTR Value 360k
SYMBOL res 176 64 R0
SYMATTR InstName R2
SYMATTR Value 10k
SYMBOL OpAmps\\OP07 672 0 M180
SYMATTR InstName U2
SYMBOL res 720 48 R90
WINDOW 0 0 56 VBottom 2
WINDOW 3 32 56 VTop 2
SYMATTR InstName R3
SYMATTR Value 360k
SYMBOL res 576 80 R0
SYMATTR InstName R4
SYMATTR Value 10k
SYMBOL cap 448 -96 R90
WINDOW 0 0 32 VBottom 2
WINDOW 3 32 32 VTop 2
SYMATTR InstName C1
SYMATTR Value 1n
SYMBOL res 464 -32 R0
SYMATTR InstName R5
SYMATTR Value 160k
SYMBOL res -16 -112 R90
WINDOW 0 0 56 VBottom 2
WINDOW 3 32 56 VTop 2
SYMATTR InstName R6
SYMATTR Value 160k
SYMBOL cap -32 -48 R0
SYMATTR InstName C2
SYMATTR Value 1n
SYMBOL cap 80 -112 R90
WINDOW 0 0 32 VBottom 2
WINDOW 3 32 32 VTop 2
SYMATTR InstName C3
SYMATTR Value 1n
SYMBOL res 80 -64 R0
SYMATTR InstName R7
SYMATTR Value 160k
SYMBOL OpAmps\\OP07 1008 16 M180
SYMATTR InstName U3
SYMBOL res 928 -32 R90
WINDOW 0 0 56 VBottom 2
WINDOW 3 32 56 VTop 2
SYMATTR InstName R8
SYMATTR Value 1k
SYMBOL res 960 128 R180
WINDOW 0 36 76 Left 2
WINDOW 3 36 40 Left 2
SYMATTR InstName R9
SYMATTR Value 75
SYMBOL voltage 800 256 R0
WINDOW 123 0 0 Left 0
WINDOW 39 0 0 Left 0
SYMATTR InstName V1
SYMATTR Value 3.3
SYMBOL res -240 -256 R0
SYMATTR InstName R10
SYMATTR Value 10k
SYMBOL Contrib\\Nexperia\\nmos\\PH2520U -176 -16 R180
SYMATTR InstName PhotoDiode
SYMATTR SpiceModel QSE113
