Version 4
SHEET 1 1884 964
WIRE -320 -64 -320 -128
WIRE -320 80 -320 32
WIRE -240 80 -320 80
WIRE -144 80 -176 80
WIRE 0 80 -144 80
WIRE 112 96 64 96
WIRE 160 96 112 96
WIRE 256 96 240 96
WIRE 272 96 256 96
WIRE 384 96 352 96
WIRE 400 96 384 96
WIRE 496 96 464 96
WIRE 528 96 496 96
WIRE 608 96 592 96
WIRE 752 96 608 96
WIRE 0 112 -48 112
WIRE 864 112 816 112
WIRE 896 112 864 112
WIRE 1008 112 976 112
WIRE 1024 112 1008 112
WIRE 1120 112 1088 112
WIRE 1264 112 1120 112
WIRE -144 128 -144 80
WIRE 752 128 704 128
WIRE 1376 128 1328 128
WIRE 1616 128 1376 128
WIRE 256 144 256 96
WIRE 384 144 384 96
WIRE 496 144 496 96
WIRE 608 144 608 96
WIRE 1264 144 1216 144
WIRE 1776 144 1680 144
WIRE 32 160 32 128
WIRE 160 160 32 160
WIRE 1584 160 1552 160
WIRE 1616 160 1584 160
WIRE 784 176 784 144
WIRE 912 176 784 176
WIRE 1008 176 1008 112
WIRE 1120 176 1120 112
WIRE 1472 176 1440 176
WIRE 1552 176 1552 160
WIRE 1296 192 1296 160
WIRE 1440 192 1440 176
WIRE 1440 192 1296 192
WIRE -48 208 -48 112
WIRE 0 208 -48 208
WIRE 112 208 112 96
WIRE 112 208 80 208
WIRE -320 224 -320 80
WIRE 704 224 704 128
WIRE 752 224 704 224
WIRE 864 224 864 112
WIRE 864 224 832 224
WIRE 1584 224 1584 160
WIRE -48 240 -48 208
WIRE 1216 240 1216 144
WIRE 1264 240 1216 240
WIRE 1376 240 1376 128
WIRE 1376 240 1344 240
WIRE -144 256 -144 208
WIRE 256 256 256 208
WIRE 384 256 384 208
WIRE 496 256 496 224
WIRE 608 256 608 224
WIRE 704 256 704 224
WIRE 1216 272 1216 240
WIRE 1008 288 1008 240
WIRE 1120 288 1120 256
WIRE 1584 320 1584 304
WIRE -48 352 -48 320
WIRE 704 368 704 336
WIRE 1216 384 1216 352
WIRE -320 432 -320 304
WIRE 160 432 160 160
WIRE 160 432 -320 432
WIRE 912 432 912 176
WIRE 912 432 160 432
WIRE 1440 432 1440 192
WIRE 1440 432 912 432
WIRE 1648 432 1648 176
WIRE 1648 432 1440 432
WIRE 912 464 912 432
WIRE 912 576 912 544
FLAG 256 256 0
FLAG 384 256 0
FLAG 496 256 0
FLAG 608 256 0
FLAG 1008 288 0
FLAG 1120 288 0
FLAG 1296 96 0
FLAG 1648 112 0
FLAG 784 80 0
FLAG 32 64 0
FLAG 912 576 0
FLAG 1584 320 0
FLAG 1776 144 OUT
IOPIN 1776 144 Out
FLAG -48 352 0
FLAG 704 368 0
FLAG 1216 384 0
FLAG -144 256 0
FLAG -320 -128 0
SYMBOL OpAmps\\OP07 784 176 M180
SYMATTR InstName U2
SYMBOL OpAmps\\OP07 1648 208 M180
SYMATTR InstName U4
SYMBOL res 256 80 R90
WINDOW 0 0 56 VBottom 2
WINDOW 3 32 56 VTop 2
SYMATTR InstName R1
SYMATTR Value 16k
SYMBOL cap 240 144 R0
SYMATTR InstName C1
SYMATTR Value 10n
SYMBOL res 368 80 R90
WINDOW 0 0 56 VBottom 2
WINDOW 3 32 56 VTop 2
SYMATTR InstName R2
SYMATTR Value 16k
SYMBOL cap 368 144 R0
SYMATTR InstName C2
SYMATTR Value 10n
SYMBOL res 480 128 R0
SYMATTR InstName R3
SYMATTR Value 16k
SYMBOL cap 464 80 R90
WINDOW 0 0 32 VBottom 2
WINDOW 3 32 32 VTop 2
SYMATTR InstName C3
SYMATTR Value 10n
SYMBOL cap 592 80 R90
WINDOW 0 0 32 VBottom 2
WINDOW 3 32 32 VTop 2
SYMATTR InstName C4
SYMATTR Value 10n
SYMBOL res 592 128 R0
SYMATTR InstName R4
SYMATTR Value 16k
SYMBOL res 992 96 R90
WINDOW 0 0 56 VBottom 2
WINDOW 3 32 56 VTop 2
SYMATTR InstName R5
SYMATTR Value 16k
SYMBOL cap 992 176 R0
SYMATTR InstName C5
SYMATTR Value 10n
SYMBOL cap 1088 96 R90
WINDOW 0 0 32 VBottom 2
WINDOW 3 32 32 VTop 2
SYMATTR InstName C6
SYMATTR Value 10n
SYMBOL res 1104 160 R0
SYMATTR InstName R6
SYMATTR Value 16k
SYMBOL OpAmps\\OP07 32 160 M180
SYMATTR InstName U5
SYMBOL res -64 336 M180
WINDOW 0 36 76 Left 2
WINDOW 3 36 40 Left 2
SYMATTR InstName R9
SYMATTR Value 1k
SYMBOL res 96 224 M270
WINDOW 0 32 56 VTop 2
WINDOW 3 0 56 VBottom 2
SYMATTR InstName R10
SYMATTR Value 20k
SYMBOL OpAmps\\OP07 1296 192 M180
SYMATTR InstName U6
SYMBOL voltage 912 448 R0
WINDOW 123 0 0 Left 0
WINDOW 39 0 0 Left 0
SYMATTR InstName V1
SYMATTR Value 3.3
SYMBOL res 1568 160 R90
WINDOW 0 0 56 VBottom 2
WINDOW 3 32 56 VTop 2
SYMATTR InstName R13
SYMATTR Value 1k
SYMBOL res 1600 320 R180
WINDOW 0 36 76 Left 2
WINDOW 3 36 40 Left 2
SYMATTR InstName R14
SYMATTR Value 20
SYMBOL res 688 352 M180
WINDOW 0 36 76 Left 2
WINDOW 3 36 40 Left 2
SYMATTR InstName R15
SYMATTR Value 1k
SYMBOL res 848 240 M270
WINDOW 0 32 56 VTop 2
WINDOW 3 0 56 VBottom 2
SYMATTR InstName R16
SYMATTR Value 20k
SYMBOL res 1200 368 M180
WINDOW 0 36 76 Left 2
WINDOW 3 36 40 Left 2
SYMATTR InstName R7
SYMATTR Value 1k
SYMBOL res 1360 256 M270
WINDOW 0 32 56 VTop 2
WINDOW 3 0 56 VBottom 2
SYMATTR InstName R8
SYMATTR Value 20k
SYMBOL mesfet -272 32 R180
SYMATTR InstName Microphone
SYMATTR Value OM-2738P-C33-R
SYMBOL cap -176 64 R90
WINDOW 0 0 32 VBottom 2
WINDOW 3 32 32 VTop 2
SYMATTR InstName C7
SYMATTR Value 10n
SYMBOL res -160 112 R0
SYMATTR InstName R11
SYMATTR Value 16k
SYMBOL res -336 208 R0
SYMATTR InstName R12
SYMATTR Value 2.2k
